OPT_V8/Irradiation_fixed_800_w_exp_2003-1223/powerflow_results_t5.txt
Pandapower Network Debug Info
==================================================

BUS:
       vm_pu  va_degree      p_mw    q_mvar
0   0.992832   0.144816  0.001177  0.000873
1   0.988420   0.255491  0.001302  0.002319
2   0.984525   0.356718  0.001714  0.003237
3   0.988933   0.230015  0.002530  0.004159
4   0.989136   0.310973  0.002580  0.005625
5   0.991743   0.134128  0.003740  0.005692
6   0.989921   0.143358  0.001200  0.001117
7   0.997181   0.028226  0.002040  0.002278
8   0.997714   0.055705  0.002117  0.003522
9   0.999890   0.000587  0.011365  0.008465
10  0.999877   0.000640  0.009051  0.008079
11  0.999867   0.000686  0.012133  0.011090
12  0.999761   0.001467  0.010315  0.005095
13  0.999741   0.001610  0.011576  0.011609
14  0.999729   0.001612  0.015512  0.012190
15  0.999931   0.000488  0.000000  0.000000
16  0.999931   0.000494  0.000000  0.000000
17  0.999766   0.001526  0.000000  0.000000
18  0.999766   0.001537  0.000000  0.000000
19  1.000000   0.000000 -0.039425 -0.043325
20  1.000000   0.000006  0.000000  0.000000
21  1.000000   0.000000 -0.049244 -0.052240
22  1.000000   0.000007  0.000000  0.000000
--------------------------------------------------

LINE:
    p_from_mw  q_from_mvar   p_to_mw  q_to_mvar         pl_mw       ql_mvar  i_from_ka   i_to_ka      i_ka  vm_from_pu  va_from_degree  vm_to_pu  va_to_degree  loading_percent
0    0.039415     0.039325 -0.039412  -0.039323  3.032191e-06  2.364250e-06   0.002143  0.002143  0.002143    1.000000        0.000006  0.999931      0.000488         0.931750
1    0.049234     0.048240 -0.049221  -0.048230  1.277975e-05  9.964578e-06   0.002653  0.002653  0.002653    1.000000        0.000007  0.999766      0.001526         1.153496
2    0.032551     0.027635 -0.032550  -0.027634  1.410076e-06  1.099460e-06   0.001644  0.001644  0.001644    0.999931        0.000488  0.999890      0.000587         0.714616
3    0.010315     0.005095 -0.010315  -0.005095  4.579495e-08  3.570708e-08   0.000443  0.000443  0.000443    0.999766        0.001526  0.999761      0.001467         0.192576
4    0.027089     0.023799 -0.027088  -0.023799  7.112774e-07  5.545947e-07   0.001388  0.001388  0.001388    0.999766        0.001526  0.999741      0.001610         0.603571
5    0.006851     0.010688 -0.006775  -0.010629  7.539189e-05  5.878430e-05   0.018325  0.018325  0.018325    0.999931        0.000494  0.992832      0.144816         7.967473
6    0.004998     0.006855 -0.004942  -0.006811  5.585798e-05  4.355339e-05   0.012247  0.012247  0.012247    0.999766        0.001537  0.991743      0.134128         5.324936
7    0.002046     0.002283 -0.002040  -0.002278  6.353290e-06  4.953765e-06   0.004426  0.004426  0.004426    0.999766        0.001537  0.997181      0.028226         1.924437
8    0.004763     0.009199 -0.004745  -0.009184  1.845755e-05  1.439166e-05   0.014955  0.014955  0.014955    0.999766        0.001537  0.997714      0.055705         6.502095
9   -0.021184    -0.019168  0.021184   0.019169  2.823255e-07  2.201339e-07   0.001100  0.001100  0.001100    0.999877        0.000640  0.999890      0.000587         0.478155
10  -0.012133    -0.011090  0.012133   0.011090  1.321698e-07  1.030550e-07   0.000633  0.000633  0.000633    0.999867        0.000686  0.999877      0.000640         0.275107
11  -0.015512    -0.012190  0.015512   0.012190  1.904530e-07  1.484994e-07   0.000760  0.000760  0.000760    0.999729        0.001612  0.999741      0.001610         0.330240
12  -0.003029    -0.005565  0.003053   0.005584  2.431123e-05  1.895586e-05   0.009253  0.009253  0.009253    0.988420        0.255491  0.992832      0.144816         4.022831
13  -0.002530    -0.004159  0.002546   0.004172  1.617799e-05  1.261424e-05   0.007105  0.007105  0.007105    0.988933        0.230015  0.992832      0.144816         3.089073
14  -0.001714    -0.003237  0.001726   0.003247  1.251926e-05  9.761470e-06   0.005370  0.005370  0.005370    0.984525        0.356718  0.988420      0.255491         2.334608
15   0.002627     0.005662 -0.002580  -0.005625  4.762418e-05  3.713335e-05   0.009030  0.009030  0.009030    0.997714        0.055705  0.989136      0.310973         3.926123
16  -0.001200    -0.001117  0.001202   0.001119  2.388805e-06  1.862591e-06   0.002391  0.002391  0.002391    0.989921        0.143358  0.991743      0.134128         1.039506
--------------------------------------------------

TRAFO:
    p_hv_mw  q_hv_mvar   p_lv_mw  q_lv_mvar    pl_mw   ql_mvar   i_hv_ka   i_lv_ka  vm_hv_pu  va_hv_degree  vm_lv_pu  va_lv_degree  loading_percent
0  0.006861   0.011688 -0.006851  -0.010688  0.00001  0.001000  0.000522  0.018325  0.999931      0.000488  0.999931      0.000494         0.135537
1  0.011817   0.019336 -0.011807  -0.018336  0.00001  0.000999  0.000872  0.031486  0.999766      0.001526  0.999766      0.001537         0.226662
2  0.039425   0.043325 -0.039415  -0.039325  0.00001  0.004000  0.000483  0.002143  1.000000      0.000000  1.000000      0.000006         0.146445
3  0.049244   0.052240 -0.049234  -0.048240  0.00001  0.004000  0.000592  0.002653  1.000000      0.000000  1.000000      0.000007         0.179478
--------------------------------------------------
